NIL
  -OEChem-10192010043D

 61 65  0     0  0  0  0  0  0999 V2000
   27.4846    2.8593   51.2581 O   0  0  0  0  0  0  0  0  0  0  0  0
   27.1679    2.6302   52.3999 C   0  0  0  0  0  0  0  0  0  0  0  0
   26.0672    3.0589   53.0358 N   0  0  0  0  0  0  0  0  0  0  0  0
   25.1662    4.0036   52.5608 C   0  0  0  0  0  0  0  0  0  0  0  0
   24.3734    4.7659   53.4541 C   0  0  0  0  0  0  0  0  0  0  0  0
   23.4715    5.7256   52.9862 C   0  0  0  0  0  0  0  0  0  0  0  0
   22.7127    6.5149   53.8635 N   0  0  0  0  0  0  0  0  0  0  0  0
   22.3757    6.2695   55.1933 C   0  0  0  0  0  0  0  0  0  0  0  0
   21.5600    7.2616   55.6121 C   0  0  0  0  0  0  0  0  0  0  0  0
   20.9481    7.4461   56.9797 C   0  0  0  0  0  0  0  0  0  0  0  0
   21.4051    8.1314   54.5892 N   0  0  0  0  0  0  0  0  0  0  0  0
   22.0663    7.6483   53.5659 C   0  0  0  0  0  0  0  0  0  0  0  0
   23.2904    5.8850   51.6162 C   0  0  0  0  0  0  0  0  0  0  0  0
   24.9330    4.1400   51.1749 C   0  0  0  0  0  0  0  0  0  0  0  0
   24.0301    5.1337   50.7001 C   0  0  0  0  0  0  0  0  0  0  0  0
   23.8476    5.2973   49.2260 C   0  0  0  0  0  0  0  0  0  0  0  0
   23.7622    4.1455   48.5313 F   0  0  0  0  0  0  0  0  0  0  0  0
   22.6824    5.8716   48.9504 F   0  0  0  0  0  0  0  0  0  0  0  0
   24.8863    5.9355   48.6483 F   0  0  0  0  0  0  0  0  0  0  0  0
   27.9226    1.5482   53.0622 C   0  0  0  0  0  0  0  0  0  0  0  0
   27.5732    0.9609   54.2875 C   0  0  0  0  0  0  0  0  0  0  0  0
   28.2663   -0.1418   54.7889 C   0  0  0  0  0  0  0  0  0  0  0  0
   29.2727   -0.7514   54.0571 C   0  0  0  0  0  0  0  0  0  0  0  0
   30.0150   -1.9582   54.6132 C   0  0  0  0  0  0  0  0  0  0  0  0
   29.5549   -0.2361   52.7929 C   0  0  0  0  0  0  0  0  0  0  0  0
   28.8649    0.8867   52.3185 C   0  0  0  0  0  0  0  0  0  0  0  0
   30.6714   -0.7297   52.1059 N   0  0  0  0  0  0  0  0  0  0  0  0
   31.8967   -0.0707   52.2235 C   0  0  0  0  0  0  0  0  0  0  0  0
   32.2114    0.9730   52.9801 N   0  0  0  0  0  0  0  0  0  0  0  0
   33.4679    1.4445   52.8693 C   0  0  0  0  0  0  0  0  0  0  0  0
   34.3578    0.9351   52.0030 C   0  0  0  0  0  0  0  0  0  0  0  0
   33.9841   -0.1156   51.2416 C   0  0  0  0  0  0  0  0  0  0  0  0
   32.7565   -0.6390   51.3392 N   0  0  0  0  0  0  0  0  0  0  0  0
   34.8977   -0.7947   50.2859 C   0  0  0  0  0  0  0  0  0  0  0  0
   36.2280   -0.3782   50.1177 C   0  0  0  0  0  0  0  0  0  0  0  0
   37.0286   -1.0344   49.1916 C   0  0  0  0  0  0  0  0  0  0  0  0
   36.4822   -2.1043   48.4837 C   0  0  0  0  0  0  0  0  0  0  0  0
   35.2067   -2.5067   48.6057 N   0  0  0  0  0  0  0  0  0  0  0  0
   34.4419   -1.8754   49.5057 C   0  0  0  0  0  0  0  0  0  0  0  0
   25.8779    2.6621   53.9340 H   0  0  0  0  0  0  0  0  0  0  0  0
   24.4679    4.6021   54.5175 H   0  0  0  0  0  0  0  0  0  0  0  0
   22.7090    5.4309   55.7866 H   0  0  0  0  0  0  0  0  0  0  0  0
   21.7471    7.5373   57.7302 H   0  0  0  0  0  0  0  0  0  0  0  0
   20.3333    8.3582   56.9862 H   0  0  0  0  0  0  0  0  0  0  0  0
   20.3176    6.5771   57.2194 H   0  0  0  0  0  0  0  0  0  0  0  0
   22.0873    8.1131   52.5912 H   0  0  0  0  0  0  0  0  0  0  0  0
   22.5666    6.6007   51.2553 H   0  0  0  0  0  0  0  0  0  0  0  0
   25.4391    3.4912   50.4754 H   0  0  0  0  0  0  0  0  0  0  0  0
   26.7506    1.3709   54.8546 H   0  0  0  0  0  0  0  0  0  0  0  0
   28.0135   -0.5273   55.7656 H   0  0  0  0  0  0  0  0  0  0  0  0
   29.6183   -2.2066   55.6087 H   0  0  0  0  0  0  0  0  0  0  0  0
   29.8766   -2.8163   53.9389 H   0  0  0  0  0  0  0  0  0  0  0  0
   31.0868   -1.7242   54.6936 H   0  0  0  0  0  0  0  0  0  0  0  0
   29.0848    1.2465   51.3242 H   0  0  0  0  0  0  0  0  0  0  0  0
   30.5915   -1.5473   51.5358 H   0  0  0  0  0  0  0  0  0  0  0  0
   33.7717    2.2649   53.5025 H   0  0  0  0  0  0  0  0  0  0  0  0
   35.3488    1.3556   51.9171 H   0  0  0  0  0  0  0  0  0  0  0  0
   36.6231    0.4409   50.7002 H   0  0  0  0  0  0  0  0  0  0  0  0
   38.0493   -0.7237   49.0239 H   0  0  0  0  0  0  0  0  0  0  0  0
   37.1214   -2.6402   47.7977 H   0  0  0  0  0  0  0  0  0  0  0  0
   33.4245   -2.2118   49.6401 H   0  0  0  0  0  0  0  0  0  0  0  0
  1  2  2  0  0  0  0
  2  3  1  0  0  0  0
  2 20  1  0  0  0  0
  3  4  1  0  0  0  0
  3 40  1  0  0  0  0
  4  5  2  0  0  0  0
  4 14  1  0  0  0  0
  5  6  1  0  0  0  0
  5 41  1  0  0  0  0
  6  7  1  0  0  0  0
  6 13  2  0  0  0  0
  7  8  1  0  0  0  0
  7 12  1  0  0  0  0
  8  9  2  0  0  0  0
  8 42  1  0  0  0  0
  9 10  1  0  0  0  0
  9 11  1  0  0  0  0
 10 43  1  0  0  0  0
 10 44  1  0  0  0  0
 10 45  1  0  0  0  0
 11 12  2  0  0  0  0
 12 46  1  0  0  0  0
 13 15  1  0  0  0  0
 13 47  1  0  0  0  0
 14 15  2  0  0  0  0
 14 48  1  0  0  0  0
 15 16  1  0  0  0  0
 16 17  1  0  0  0  0
 16 18  1  0  0  0  0
 16 19  1  0  0  0  0
 20 21  2  0  0  0  0
 20 26  1  0  0  0  0
 21 22  1  0  0  0  0
 21 49  1  0  0  0  0
 22 23  2  0  0  0  0
 22 50  1  0  0  0  0
 23 24  1  0  0  0  0
 23 25  1  0  0  0  0
 24 51  1  0  0  0  0
 24 52  1  0  0  0  0
 24 53  1  0  0  0  0
 25 26  2  0  0  0  0
 25 27  1  0  0  0  0
 26 54  1  0  0  0  0
 27 28  1  0  0  0  0
 27 55  1  0  0  0  0
 28 29  2  0  0  0  0
 28 33  1  0  0  0  0
 29 30  1  0  0  0  0
 30 31  2  0  0  0  0
 30 56  1  0  0  0  0
 31 32  1  0  0  0  0
 31 57  1  0  0  0  0
 32 33  2  0  0  0  0
 32 34  1  0  0  0  0
 34 35  2  0  0  0  0
 34 39  1  0  0  0  0
 35 36  1  0  0  0  0
 35 58  1  0  0  0  0
 36 37  2  0  0  0  0
 36 59  1  0  0  0  0
 37 38  1  0  0  0  0
 37 60  1  0  0  0  0
 38 39  2  0  0  0  0
 39 61  1  0  0  0  0
M  END
> <bio:pdb:part:site>
1

> <bio:pdb:part:order>
1

> <bio:pdb:ligand>
true

$$$$
