_1
  -OEChem-10192010483D

 56 59  0     0  0  0  0  0  0999 V2000
    2.4020   -9.3620  -20.2076 C   0  0  0  0  0  0  0  0  0  0  0  0
    2.2586   -9.2561  -18.8242 C   0  0  0  0  0  0  0  0  0  0  0  0
    2.1223   -7.9310  -25.0331 C   0  0  0  0  0  0  0  0  0  0  0  0
    0.1999   -8.2503  -27.0127 C   0  0  0  0  0  0  0  0  0  0  0  0
    0.2663   -8.2743  -20.5124 C   0  0  0  0  0  0  0  0  0  0  0  0
   -1.4010   -9.8447  -24.2286 C   0  0  0  0  0  0  0  0  0  0  0  0
    0.9128   -8.5896  -24.7512 C   0  0  0  0  0  0  0  0  0  0  0  0
   -0.0670   -8.7574  -25.7433 C   0  0  0  0  0  0  0  0  0  0  0  0
    1.4059   -8.8711  -21.0517 C   0  0  0  0  0  0  0  0  0  0  0  0
    2.3627   -7.4343  -26.3104 C   0  0  0  0  0  0  0  0  0  0  0  0
    1.4002   -7.5942  -27.3009 C   0  0  0  0  0  0  0  0  0  0  0  0
    1.1190   -8.6594  -18.2849 C   0  0  0  0  0  0  0  0  0  0  0  0
    0.1228   -8.1685  -19.1289 C   0  0  0  0  0  0  0  0  0  0  0  0
    0.6102   -9.1095  -23.4958 C   0  0  0  0  0  0  0  0  0  0  0  0
    7.3510   -2.9806  -26.6729 C   0  0  0  0  0  0  0  0  0  0  0  0
    5.7620   -1.0865  -26.4099 C   0  0  0  0  0  0  0  0  0  0  0  0
    8.1597   -2.0892  -27.6000 C   0  0  0  0  0  0  0  0  0  0  0  0
    6.6532   -0.2927  -27.3502 C   0  0  0  0  0  0  0  0  0  0  0  0
    1.1903   -5.7802  -28.8244 C   0  0  0  0  0  0  0  0  0  0  0  0
    4.6907   -4.6920  -26.6526 C   0  0  0  0  0  0  0  0  0  0  0  0
    5.0162   -3.4155  -25.8959 C   0  0  0  0  0  0  0  0  0  0  0  0
    3.8280   -5.6271  -25.8176 C   0  0  0  0  0  0  0  0  0  0  0  0
   -1.2272   -9.3858  -25.4847 N   0  0  0  0  0  0  0  0  0  0  0  0
   -0.5407   -9.7436  -23.2027 N   0  0  0  0  0  0  0  0  0  0  0  0
    1.5508   -8.9782  -22.4439 N   0  0  0  0  0  0  0  0  0  0  0  0
    5.9041   -2.5526  -26.7457 N   0  3  0  0  0  0  0  0  0  0  0  0
    8.0118   -0.7174  -27.2309 O   0  0  0  0  0  0  0  0  0  0  0  0
    1.6143   -7.1156  -28.5586 O   0  0  0  0  0  0  0  0  0  0  0  0
    3.5443   -6.7932  -26.5783 O   0  0  0  0  0  0  0  0  0  0  0  0
    0.9951   -8.5653  -16.9532 F   0  0  0  0  0  0  0  0  0  0  0  0
   -1.2869   -7.4326  -18.4695 Cl  0  0  0  0  0  0  0  0  0  0  0  0
    3.2947   -9.8280  -20.6177 H   0  0  0  0  0  0  0  0  0  0  0  0
    3.0342   -9.6388  -18.1675 H   0  0  0  0  0  0  0  0  0  0  0  0
    2.8861   -7.7969  -24.2707 H   0  0  0  0  0  0  0  0  0  0  0  0
   -0.5419   -8.3659  -27.8016 H   0  0  0  0  0  0  0  0  0  0  0  0
   -0.5085   -7.8932  -21.1741 H   0  0  0  0  0  0  0  0  0  0  0  0
   -2.3377  -10.3499  -24.0268 H   0  0  0  0  0  0  0  0  0  0  0  0
    7.4062   -4.0297  -26.9789 H   0  0  0  0  0  0  0  0  0  0  0  0
    7.6675   -2.8711  -25.6299 H   0  0  0  0  0  0  0  0  0  0  0  0
    6.0676   -0.9651  -25.3649 H   0  0  0  0  0  0  0  0  0  0  0  0
    4.7092   -0.8150  -26.5324 H   0  0  0  0  0  0  0  0  0  0  0  0
    9.2221   -2.3400  -27.5183 H   0  0  0  0  0  0  0  0  0  0  0  0
    7.8699   -2.2239  -28.6490 H   0  0  0  0  0  0  0  0  0  0  0  0
    6.3271   -0.3837  -28.3931 H   0  0  0  0  0  0  0  0  0  0  0  0
    6.6151    0.7686  -27.0853 H   0  0  0  0  0  0  0  0  0  0  0  0
    1.4196   -5.5240  -29.8617 H   0  0  0  0  0  0  0  0  0  0  0  0
    1.7022   -5.0926  -28.1464 H   0  0  0  0  0  0  0  0  0  0  0  0
    0.1118   -5.7111  -28.6643 H   0  0  0  0  0  0  0  0  0  0  0  0
    5.6126   -5.2117  -26.9438 H   0  0  0  0  0  0  0  0  0  0  0  0
    4.1715   -4.4606  -27.5913 H   0  0  0  0  0  0  0  0  0  0  0  0
    5.5613   -3.6160  -24.9689 H   0  0  0  0  0  0  0  0  0  0  0  0
    4.1191   -2.8290  -25.6767 H   0  0  0  0  0  0  0  0  0  0  0  0
    2.8813   -5.1484  -25.5479 H   0  0  0  0  0  0  0  0  0  0  0  0
    4.3493   -5.9266  -24.9028 H   0  0  0  0  0  0  0  0  0  0  0  0
    2.5112   -8.9594  -22.7659 H   0  0  0  0  0  0  0  0  0  0  0  0
    5.5929   -2.6782  -27.7189 H   0  0  0  0  0  0  0  0  0  0  0  0
  1  2  2  0  0  0  0
  1  9  1  0  0  0  0
  2 12  1  0  0  0  0
  3  7  2  0  0  0  0
  3 10  1  0  0  0  0
  4  8  2  0  0  0  0
  4 11  1  0  0  0  0
  5  9  2  0  0  0  0
  5 13  1  0  0  0  0
  6 23  2  0  0  0  0
  6 24  1  0  0  0  0
  7  8  1  0  0  0  0
  7 14  1  0  0  0  0
  8 23  1  0  0  0  0
  9 25  1  0  0  0  0
 10 11  2  0  0  0  0
 10 29  1  0  0  0  0
 11 28  1  0  0  0  0
 12 13  2  0  0  0  0
 12 30  1  0  0  0  0
 13 31  1  0  0  0  0
 14 24  2  0  0  0  0
 14 25  1  0  0  0  0
 15 17  1  0  0  0  0
 15 26  1  0  0  0  0
 16 18  1  0  0  0  0
 16 26  1  0  0  0  0
 17 27  1  0  0  0  0
 18 27  1  0  0  0  0
 19 28  1  0  0  0  0
 20 21  1  0  0  0  0
 20 22  1  0  0  0  0
 21 26  1  0  0  0  0
 22 29  1  0  0  0  0
  1 32  1  0  0  0  0
  2 33  1  0  0  0  0
  3 34  1  0  0  0  0
  4 35  1  0  0  0  0
  5 36  1  0  0  0  0
  6 37  1  0  0  0  0
 15 38  1  0  0  0  0
 15 39  1  0  0  0  0
 16 40  1  0  0  0  0
 16 41  1  0  0  0  0
 17 42  1  0  0  0  0
 17 43  1  0  0  0  0
 18 44  1  0  0  0  0
 18 45  1  0  0  0  0
 19 46  1  0  0  0  0
 19 47  1  0  0  0  0
 19 48  1  0  0  0  0
 20 49  1  0  0  0  0
 20 50  1  0  0  0  0
 21 51  1  0  0  0  0
 21 52  1  0  0  0  0
 22 53  1  0  0  0  0
 22 54  1  0  0  0  0
 25 55  1  0  0  0  0
 26 56  1  0  0  0  0
M  CHG  1  26   1
M  END
> <Chemgauss4>
-5.426242

$$$$
