_1
  -OEChem-10092014283D

 68 72  0     0  0  0  0  0  0999 V2000
   -0.9790    6.6741   34.0163 C   0  0  0  0  0  0  0  0  0  0  0  0
   -1.9277    6.8127   34.7402 C   0  0  0  0  0  0  0  0  0  0  0  0
    2.3785    6.1636   31.5099 C   0  0  0  0  0  0  0  0  0  0  0  0
    1.2276    6.7697   31.0065 C   0  0  0  0  0  0  0  0  0  0  0  0
    7.6474    3.6061   34.2233 C   0  0  0  0  0  0  0  0  0  0  0  0
    6.3526    4.0609   33.9740 C   0  0  0  0  0  0  0  0  0  0  0  0
    1.3022    5.9027   33.6570 C   0  0  0  0  0  0  0  0  0  0  0  0
    7.1982    5.5194   32.2434 C   0  0  0  0  0  0  0  0  0  0  0  0
   -3.4907    8.1567   36.1441 C   0  0  0  0  0  0  0  0  0  0  0  0
    0.1512    6.5089   33.1537 C   0  0  0  0  0  0  0  0  0  0  0  0
   -3.0574    6.9778   35.6019 C   0  0  0  0  0  0  0  0  0  0  0  0
    2.4159    5.7301   32.8351 C   0  0  0  0  0  0  0  0  0  0  0  0
    0.1139    6.9424   31.8284 C   0  0  0  0  0  0  0  0  0  0  0  0
    8.7177    4.1079   33.4828 C   0  0  0  0  0  0  0  0  0  0  0  0
    8.4930    5.0646   32.4929 C   0  0  0  0  0  0  0  0  0  0  0  0
    6.1280    5.0175   32.9840 C   0  0  0  0  0  0  0  0  0  0  0  0
   -4.8497    6.5522   36.8404 C   0  0  0  0  0  0  0  0  0  0  0  0
   -5.9154    5.7616   37.4757 C   0  0  0  0  0  0  0  0  0  0  0  0
   -5.8971    4.4538   37.2153 C   0  0  0  0  0  0  0  0  0  0  0  0
   -4.8045    3.9831   36.3220 C   0  0  0  0  0  0  0  0  0  0  0  0
    3.6319    5.0898   33.3650 C   0  0  0  0  0  0  0  0  0  0  0  0
   10.0025    1.3316   32.9743 C   0  0  0  0  0  0  0  0  0  0  0  0
   12.0351    2.6172   32.7227 C   0  0  0  0  0  0  0  0  0  0  0  0
   10.4439    0.3554   31.8889 C   0  0  0  0  0  0  0  0  0  0  0  0
   12.5354    1.6783   31.6301 C   0  0  0  0  0  0  0  0  0  0  0  0
   -1.1021    7.5969   31.2550 C   0  0  0  0  0  0  0  0  0  0  0  0
   12.4565   -0.6904   30.8473 C   0  0  0  0  0  0  0  0  0  0  0  0
   10.1024    3.6037   33.7699 C   0  0  0  0  0  0  0  0  0  0  0  0
    9.6232    5.6146   31.6861 C   0  0  0  0  0  0  0  0  0  0  0  0
   -3.8454    4.6384   35.7398 N   0  0  0  0  0  0  0  0  0  0  0  0
   -3.9171    6.0021   36.0501 N   0  0  0  0  0  0  0  0  0  0  0  0
   -4.5992    7.8646   36.9047 N   0  3  0  0  0  0  0  0  0  0  0  0
   10.5674    2.6682   32.7464 N   0  0  0  0  0  0  0  0  0  0  0  0
    4.8328    5.4713   32.7330 N   0  0  0  0  0  0  0  0  0  0  0  0
   11.9505    0.3060   31.8513 N   0  3  0  0  0  0  0  0  0  0  0  0
    3.5673    4.2609   34.2704 O   0  0  0  0  0  0  0  0  0  0  0  0
    9.2330    6.5385   30.7598 F   0  0  0  0  0  0  0  0  0  0  0  0
   10.5746    6.2415   32.4380 F   0  0  0  0  0  0  0  0  0  0  0  0
   10.2848    4.6487   30.9861 F   0  0  0  0  0  0  0  0  0  0  0  0
    3.2400    6.0334   30.8595 H   0  0  0  0  0  0  0  0  0  0  0  0
    1.2093    7.1038   29.9724 H   0  0  0  0  0  0  0  0  0  0  0  0
    7.8123    2.8612   34.9975 H   0  0  0  0  0  0  0  0  0  0  0  0
    5.5268    3.6632   34.5582 H   0  0  0  0  0  0  0  0  0  0  0  0
    1.3370    5.5619   34.6903 H   0  0  0  0  0  0  0  0  0  0  0  0
    7.0240    6.2656   31.4711 H   0  0  0  0  0  0  0  0  0  0  0  0
   -3.1774    9.1816   36.1075 H   0  0  0  0  0  0  0  0  0  0  0  0
   -6.6564    6.2292   38.1099 H   0  0  0  0  0  0  0  0  0  0  0  0
   -6.6148    3.7493   37.6110 H   0  0  0  0  0  0  0  0  0  0  0  0
   -4.8333    2.8956   36.1373 H   0  0  0  0  0  0  0  0  0  0  0  0
    8.9073    1.3862   32.9544 H   0  0  0  0  0  0  0  0  0  0  0  0
   10.2889    0.9444   33.9613 H   0  0  0  0  0  0  0  0  0  0  0  0
   12.4336    2.3020   33.6964 H   0  0  0  0  0  0  0  0  0  0  0  0
   12.4347    3.6180   32.5188 H   0  0  0  0  0  0  0  0  0  0  0  0
   10.0883   -0.6564   32.1101 H   0  0  0  0  0  0  0  0  0  0  0  0
   10.0928    0.6590   30.8958 H   0  0  0  0  0  0  0  0  0  0  0  0
   12.2353    2.0141   30.6307 H   0  0  0  0  0  0  0  0  0  0  0  0
   13.6252    1.5806   31.6726 H   0  0  0  0  0  0  0  0  0  0  0  0
   -1.7670    6.8433   30.8188 H   0  0  0  0  0  0  0  0  0  0  0  0
   -1.6539    8.1482   32.0254 H   0  0  0  0  0  0  0  0  0  0  0  0
   -0.8311    8.3193   30.4759 H   0  0  0  0  0  0  0  0  0  0  0  0
   12.1288   -0.3641   29.8586 H   0  0  0  0  0  0  0  0  0  0  0  0
   13.5460   -0.7081   30.9139 H   0  0  0  0  0  0  0  0  0  0  0  0
   12.0320   -1.6640   31.0998 H   0  0  0  0  0  0  0  0  0  0  0  0
   10.8143    4.4350   33.8155 H   0  0  0  0  0  0  0  0  0  0  0  0
   10.1408    3.0893   34.7359 H   0  0  0  0  0  0  0  0  0  0  0  0
   -5.1436    8.5412   37.4328 H   0  0  0  0  0  0  0  0  0  0  0  0
    4.7425    6.1749   31.9910 H   0  0  0  0  0  0  0  0  0  0  0  0
   12.2697   -0.0195   32.7742 H   0  0  0  0  0  0  0  0  0  0  0  0
  1  2  3  0  0  0  0
  1 10  1  0  0  0  0
  2 11  1  0  0  0  0
  3  4  2  0  0  0  0
  3 12  1  0  0  0  0
  4 13  1  0  0  0  0
  5  6  2  0  0  0  0
  5 14  1  0  0  0  0
  6 16  1  0  0  0  0
  7 10  1  0  0  0  0
  7 12  2  0  0  0  0
  8 15  1  0  0  0  0
  8 16  2  0  0  0  0
  9 11  2  0  0  0  0
  9 32  1  0  0  0  0
 10 13  2  0  0  0  0
 11 31  1  0  0  0  0
 12 21  1  0  0  0  0
 13 26  1  0  0  0  0
 14 15  2  0  0  0  0
 14 28  1  0  0  0  0
 15 29  1  0  0  0  0
 16 34  1  0  0  0  0
 17 18  1  0  0  0  0
 17 31  1  0  0  0  0
 17 32  2  0  0  0  0
 18 19  2  0  0  0  0
 19 20  1  0  0  0  0
 20 30  2  0  0  0  0
 21 34  1  0  0  0  0
 21 36  2  0  0  0  0
 22 24  1  0  0  0  0
 22 33  1  0  0  0  0
 23 25  1  0  0  0  0
 23 33  1  0  0  0  0
 24 35  1  0  0  0  0
 25 35  1  0  0  0  0
 27 35  1  0  0  0  0
 28 33  1  0  0  0  0
 29 37  1  0  0  0  0
 29 38  1  0  0  0  0
 29 39  1  0  0  0  0
 30 31  1  0  0  0  0
  3 40  1  0  0  0  0
  4 41  1  0  0  0  0
  5 42  1  0  0  0  0
  6 43  1  0  0  0  0
  7 44  1  0  0  0  0
  8 45  1  0  0  0  0
  9 46  1  0  0  0  0
 18 47  1  0  0  0  0
 19 48  1  0  0  0  0
 20 49  1  0  0  0  0
 22 50  1  0  0  0  0
 22 51  1  0  0  0  0
 23 52  1  0  0  0  0
 23 53  1  0  0  0  0
 24 54  1  0  0  0  0
 24 55  1  0  0  0  0
 25 56  1  0  0  0  0
 25 57  1  0  0  0  0
 26 58  1  0  0  0  0
 26 59  1  0  0  0  0
 26 60  1  0  0  0  0
 27 61  1  0  0  0  0
 27 62  1  0  0  0  0
 27 63  1  0  0  0  0
 28 64  1  0  0  0  0
 28 65  1  0  0  0  0
 32 66  1  0  0  0  0
 34 67  1  0  0  0  0
 35 68  1  0  0  0  0
M  CHG  2  32   1  35   1
M  END
> <Chemgauss4>
-6.775191

$$$$
