1N1
  -OEChem-10192009563D

 60 63  0     0  0  0  0  0  0999 V2000
  -15.9711  -31.8203   16.2380 C   0  0  0  0  0  0  0  0  0  0  0  0
  -14.6646  -32.3227   16.2721 C   0  0  0  0  0  0  0  0  0  0  0  0
  -13.7081  -32.6931   15.1907 C   0  0  0  0  0  0  0  0  0  0  0  0
  -16.8870  -32.4807   27.0471 N   0  3  0  0  0  0  0  0  0  0  0  0
  -11.2708  -33.6182   10.8559 C   0  0  0  0  0  0  0  0  0  0  0  0
  -12.3220  -34.4375   11.2574 C   0  0  0  0  0  0  0  0  0  0  0  0
  -13.2271  -34.0469   12.2589 C   0  0  0  0  0  0  0  0  0  0  0  0
  -14.3277  -35.0232   12.5989 C   0  0  0  0  0  0  0  0  0  0  0  0
  -15.4960  -32.2403   20.9381 C   0  0  0  0  0  0  0  0  0  0  0  0
  -16.0617  -32.0505   22.1819 C   0  0  0  0  0  0  0  0  0  0  0  0
  -15.3447  -32.5222   23.2862 C   0  0  0  0  0  0  0  0  0  0  0  0
  -13.6236  -33.3095   21.9674 C   0  0  0  0  0  0  0  0  0  0  0  0
  -12.2816  -33.9939   21.8345 C   0  0  0  0  0  0  0  0  0  0  0  0
  -16.7636  -31.3804   24.8787 C   0  0  0  0  0  0  0  0  0  0  0  0
  -15.1997  -33.3555   25.5312 C   0  0  0  0  0  0  0  0  0  0  0  0
  -17.5031  -32.2533   28.3499 C   0  0  0  0  0  0  0  0  0  0  0  0
  -17.0820  -30.8438   28.7389 C   0  0  0  0  0  0  0  0  0  0  0  0
  -16.1448  -31.8187   19.7973 N   0  0  0  0  0  0  0  0  0  0  0  0
  -15.6996  -31.9666   18.5127 C   0  0  0  0  0  0  0  0  0  0  0  0
  -16.5057  -31.6372   17.4858 N   0  0  0  0  0  0  0  0  0  0  0  0
  -14.1304  -32.5634   17.9376 S   0  0  0  0  0  0  0  0  0  0  0  0
  -13.9849  -32.4289   13.8983 N   0  0  0  0  0  0  0  0  0  0  0  0
  -13.1198  -32.8196   12.8990 C   0  0  0  0  0  0  0  0  0  0  0  0
  -12.0518  -32.0063   12.4890 C   0  0  0  0  0  0  0  0  0  0  0  0
  -11.1428  -32.3819   11.4872 C   0  0  0  0  0  0  0  0  0  0  0  0
  -11.8094  -30.4021   13.2393 Cl  0  0  0  0  0  0  0  0  0  0  0  0
  -12.6746  -33.2267   15.5517 O   0  0  0  0  0  0  0  0  0  0  0  0
  -14.1540  -33.1358   23.1862 N   0  0  0  0  0  0  0  0  0  0  0  0
  -14.3028  -32.8623   20.8831 N   0  0  0  0  0  0  0  0  0  0  0  0
  -15.7869  -32.3964   24.5700 N   0  0  0  0  0  0  0  0  0  0  0  0
  -17.6657  -32.0549   25.8821 C   0  0  0  0  0  0  0  0  0  0  0  0
  -15.5092  -32.9512   26.9646 C   0  0  0  0  0  0  0  0  0  0  0  0
  -18.1782  -29.9732   28.3947 O   0  0  0  0  0  0  0  0  0  0  0  0
  -16.5019  -31.6001   15.3235 H   0  0  0  0  0  0  0  0  0  0  0  0
  -17.2484  -33.4117   26.9961 H   0  0  0  0  0  0  0  0  0  0  0  0
  -10.5809  -33.9283   10.0850 H   0  0  0  0  0  0  0  0  0  0  0  0
  -12.4456  -35.4012   10.7857 H   0  0  0  0  0  0  0  0  0  0  0  0
  -13.8855  -35.9676   12.9491 H   0  0  0  0  0  0  0  0  0  0  0  0
  -14.9618  -34.5993   13.3914 H   0  0  0  0  0  0  0  0  0  0  0  0
  -14.9379  -35.2139   11.7037 H   0  0  0  0  0  0  0  0  0  0  0  0
  -17.0164  -31.5590   22.2977 H   0  0  0  0  0  0  0  0  0  0  0  0
  -11.9096  -34.2694   22.8323 H   0  0  0  0  0  0  0  0  0  0  0  0
  -12.3915  -34.9003   21.2211 H   0  0  0  0  0  0  0  0  0  0  0  0
  -11.5673  -33.3097   21.3531 H   0  0  0  0  0  0  0  0  0  0  0  0
  -16.2831  -30.4927   25.3157 H   0  0  0  0  0  0  0  0  0  0  0  0
  -17.3249  -31.0880   23.9790 H   0  0  0  0  0  0  0  0  0  0  0  0
  -15.6169  -34.3555   25.3417 H   0  0  0  0  0  0  0  0  0  0  0  0
  -14.1088  -33.3810   25.3926 H   0  0  0  0  0  0  0  0  0  0  0  0
  -18.5985  -32.3244   28.2782 H   0  0  0  0  0  0  0  0  0  0  0  0
  -17.1355  -32.9842   29.0852 H   0  0  0  0  0  0  0  0  0  0  0  0
  -16.8823  -30.7925   29.8194 H   0  0  0  0  0  0  0  0  0  0  0  0
  -16.1778  -30.5518   28.1847 H   0  0  0  0  0  0  0  0  0  0  0  0
  -17.1162  -31.6050   19.9010 H   0  0  0  0  0  0  0  0  0  0  0  0
  -14.8270  -31.9441   13.6619 H   0  0  0  0  0  0  0  0  0  0  0  0
  -10.3436  -31.7124   11.2053 H   0  0  0  0  0  0  0  0  0  0  0  0
  -18.1358  -32.9338   25.4168 H   0  0  0  0  0  0  0  0  0  0  0  0
  -18.4458  -31.3489   26.2033 H   0  0  0  0  0  0  0  0  0  0  0  0
  -14.8270  -32.1460   27.2745 H   0  0  0  0  0  0  0  0  0  0  0  0
  -15.3773  -33.8191   27.6275 H   0  0  0  0  0  0  0  0  0  0  0  0
  -17.9559  -29.0781   28.6223 H   0  0  0  0  0  0  0  0  0  0  0  0
  1  2  2  0  0  0  0
  1 20  1  0  0  0  0
  1 34  1  0  0  0  0
  2  3  1  0  0  0  0
  2 21  1  0  0  0  0
  3 22  1  0  0  0  0
  3 27  2  0  0  0  0
  4 16  1  0  0  0  0
  4 31  1  0  0  0  0
  4 32  1  0  0  0  0
  4 35  1  0  0  0  0
  5  6  2  0  0  0  0
  5 25  1  0  0  0  0
  5 36  1  0  0  0  0
  6  7  1  0  0  0  0
  6 37  1  0  0  0  0
  7  8  1  0  0  0  0
  7 23  2  0  0  0  0
  8 38  1  0  0  0  0
  8 39  1  0  0  0  0
  8 40  1  0  0  0  0
  9 10  2  0  0  0  0
  9 18  1  0  0  0  0
  9 29  1  0  0  0  0
 10 11  1  0  0  0  0
 10 41  1  0  0  0  0
 11 28  2  0  0  0  0
 11 30  1  0  0  0  0
 12 13  1  0  0  0  0
 12 28  1  0  0  0  0
 12 29  2  0  0  0  0
 13 42  1  0  0  0  0
 13 43  1  0  0  0  0
 13 44  1  0  0  0  0
 14 30  1  0  0  0  0
 14 31  1  0  0  0  0
 14 45  1  0  0  0  0
 14 46  1  0  0  0  0
 15 30  1  0  0  0  0
 15 32  1  0  0  0  0
 15 47  1  0  0  0  0
 15 48  1  0  0  0  0
 16 17  1  0  0  0  0
 16 49  1  0  0  0  0
 16 50  1  0  0  0  0
 17 33  1  0  0  0  0
 17 51  1  0  0  0  0
 17 52  1  0  0  0  0
 18 19  1  0  0  0  0
 18 53  1  0  0  0  0
 19 20  2  0  0  0  0
 19 21  1  0  0  0  0
 22 23  1  0  0  0  0
 22 54  1  0  0  0  0
 23 24  1  0  0  0  0
 24 25  2  0  0  0  0
 24 26  1  0  0  0  0
 25 55  1  0  0  0  0
 31 56  1  0  0  0  0
 31 57  1  0  0  0  0
 32 58  1  0  0  0  0
 32 59  1  0  0  0  0
 33 60  1  0  0  0  0
M  CHG  1   4   1
M  END
> <bio:pdb:part:site>
1

> <bio:pdb:part:order>
1

> <bio:pdb:ligand>
true

$$$$
