_1
  -OEChem-10092014413D

 52 54  0     0  0  0  0  0  0999 V2000
   -2.7173   10.8191  -49.9783 C   0  0  0  0  0  0  0  0  0  0  0  0
   -2.6854   10.5897  -48.8001 C   0  0  0  0  0  0  0  0  0  0  0  0
   -1.7428    9.0771  -45.5320 C   0  0  0  0  0  0  0  0  0  0  0  0
   -1.7806    9.3437  -46.9006 C   0  0  0  0  0  0  0  0  0  0  0  0
   -2.5718    9.7838  -44.6607 C   0  0  0  0  0  0  0  0  0  0  0  0
   -3.4761   11.0237  -46.5266 C   0  0  0  0  0  0  0  0  0  0  0  0
   -5.0053   13.7745  -42.7741 C   0  0  0  0  0  0  0  0  0  0  0  0
   -7.5403   14.8353  -43.1803 C   0  0  0  0  0  0  0  0  0  0  0  0
   -7.5778   12.0613  -45.4518 C   0  0  0  0  0  0  0  0  0  0  0  0
   -2.6472   10.3170  -47.3979 C   0  0  0  0  0  0  0  0  0  0  0  0
   -5.8857   13.1817  -43.6957 C   0  0  0  0  0  0  0  0  0  0  0  0
   -7.1699   13.7084  -43.9101 C   0  0  0  0  0  0  0  0  0  0  0  0
   -3.4384   10.7571  -45.1580 C   0  0  0  0  0  0  0  0  0  0  0  0
   -5.4016   14.9001  -42.0585 C   0  0  0  0  0  0  0  0  0  0  0  0
   -6.6706   15.4306  -42.2619 C   0  0  0  0  0  0  0  0  0  0  0  0
   -5.5517   12.0558  -44.4431 C   0  0  0  0  0  0  0  0  0  0  0  0
   -3.4689   19.3060  -40.1866 C   0  0  0  0  0  0  0  0  0  0  0  0
   -7.8575   20.1400  -39.7790 C   0  0  0  0  0  0  0  0  0  0  0  0
   -3.3004   15.9469  -41.6779 C   0  0  0  0  0  0  0  0  0  0  0  0
   -8.0155   17.3916  -42.2196 C   0  0  0  0  0  0  0  0  0  0  0  0
   -2.8523   17.1386  -40.8539 C   0  0  0  0  0  0  0  0  0  0  0  0
   -7.8182   18.8079  -41.7147 C   0  0  0  0  0  0  0  0  0  0  0  0
   -8.0198   13.1495  -44.7893 N   0  0  0  0  0  0  0  0  0  0  0  0
   -6.3778   11.4711  -45.3310 N   0  0  0  0  0  0  0  0  0  0  0  0
   -4.2724   11.4680  -44.2806 N   0  0  0  0  0  0  0  0  0  0  0  0
   -4.5440   15.4692  -41.1675 O   0  0  0  0  0  0  0  0  0  0  0  0
   -7.0797   16.5321  -41.5720 O   0  0  0  0  0  0  0  0  0  0  0  0
   -3.8273   18.1689  -40.9594 O   0  0  0  0  0  0  0  0  0  0  0  0
   -8.0505   18.8371  -40.3117 O   0  0  0  0  0  0  0  0  0  0  0  0
   -2.7456   11.0231  -51.0231 H   0  0  0  0  0  0  0  0  0  0  0  0
   -1.0681    8.3193  -45.1446 H   0  0  0  0  0  0  0  0  0  0  0  0
   -1.1283    8.7844  -47.5671 H   0  0  0  0  0  0  0  0  0  0  0  0
   -2.5342    9.5679  -43.5960 H   0  0  0  0  0  0  0  0  0  0  0  0
   -4.1538   11.7840  -46.9104 H   0  0  0  0  0  0  0  0  0  0  0  0
   -4.0094   13.3730  -42.6020 H   0  0  0  0  0  0  0  0  0  0  0  0
   -8.5302   15.2652  -43.3260 H   0  0  0  0  0  0  0  0  0  0  0  0
   -8.2673   11.6159  -46.1586 H   0  0  0  0  0  0  0  0  0  0  0  0
   -4.2378   20.0754  -40.2908 H   0  0  0  0  0  0  0  0  0  0  0  0
   -2.5047   19.6907  -40.5284 H   0  0  0  0  0  0  0  0  0  0  0  0
   -3.3904   19.0121  -39.1372 H   0  0  0  0  0  0  0  0  0  0  0  0
   -8.0438   20.1255  -38.7024 H   0  0  0  0  0  0  0  0  0  0  0  0
   -8.5400   20.8394  -40.2684 H   0  0  0  0  0  0  0  0  0  0  0  0
   -6.8264   20.4504  -39.9640 H   0  0  0  0  0  0  0  0  0  0  0  0
   -2.5727   15.1317  -41.6206 H   0  0  0  0  0  0  0  0  0  0  0  0
   -3.4475   16.2373  -42.7223 H   0  0  0  0  0  0  0  0  0  0  0  0
   -7.8445   17.3301  -43.2987 H   0  0  0  0  0  0  0  0  0  0  0  0
   -9.0240   17.0386  -41.9853 H   0  0  0  0  0  0  0  0  0  0  0  0
   -1.8984   17.5335  -41.2173 H   0  0  0  0  0  0  0  0  0  0  0  0
   -2.7590   16.8618  -39.7997 H   0  0  0  0  0  0  0  0  0  0  0  0
   -8.5213   19.4983  -42.1911 H   0  0  0  0  0  0  0  0  0  0  0  0
   -6.7926   19.1408  -41.8992 H   0  0  0  0  0  0  0  0  0  0  0  0
   -3.8921   11.5885  -43.3494 H   0  0  0  0  0  0  0  0  0  0  0  0
  1  2  3  0  0  0  0
  2 10  1  0  0  0  0
  3  4  2  0  0  0  0
  3  5  1  0  0  0  0
  4 10  1  0  0  0  0
  5 13  2  0  0  0  0
  6 10  2  0  0  0  0
  6 13  1  0  0  0  0
  7 11  1  0  0  0  0
  7 14  2  0  0  0  0
  8 12  1  0  0  0  0
  8 15  2  0  0  0  0
  9 23  1  0  0  0  0
  9 24  2  0  0  0  0
 11 12  1  0  0  0  0
 11 16  2  0  0  0  0
 12 23  2  0  0  0  0
 13 25  1  0  0  0  0
 14 15  1  0  0  0  0
 14 26  1  0  0  0  0
 15 27  1  0  0  0  0
 16 24  1  0  0  0  0
 16 25  1  0  0  0  0
 17 28  1  0  0  0  0
 18 29  1  0  0  0  0
 19 21  1  0  0  0  0
 19 26  1  0  0  0  0
 20 22  1  0  0  0  0
 20 27  1  0  0  0  0
 21 28  1  0  0  0  0
 22 29  1  0  0  0  0
  1 30  1  0  0  0  0
  3 31  1  0  0  0  0
  4 32  1  0  0  0  0
  5 33  1  0  0  0  0
  6 34  1  0  0  0  0
  7 35  1  0  0  0  0
  8 36  1  0  0  0  0
  9 37  1  0  0  0  0
 17 38  1  0  0  0  0
 17 39  1  0  0  0  0
 17 40  1  0  0  0  0
 18 41  1  0  0  0  0
 18 42  1  0  0  0  0
 18 43  1  0  0  0  0
 19 44  1  0  0  0  0
 19 45  1  0  0  0  0
 20 46  1  0  0  0  0
 20 47  1  0  0  0  0
 21 48  1  0  0  0  0
 21 49  1  0  0  0  0
 22 50  1  0  0  0  0
 22 51  1  0  0  0  0
 25 52  1  0  0  0  0
M  END
> <Chemgauss4>
-5.439478

$$$$
