AXI
  -OEChem-10092014133D

 46 49  0     0  0  0  0  0  0999 V2000
   62.0121   19.2382   46.7624 O   0  0  0  0  0  0  0  0  0  0  0  0
   62.4312   19.2152   47.9034 C   0  0  0  0  0  0  0  0  0  0  0  0
   62.4876   20.4200   48.6666 N   0  0  0  0  0  0  0  0  0  0  0  0
   62.0408   21.6649   48.0750 C   0  0  0  0  0  0  0  0  0  0  0  0
   62.8910   17.9333   48.5061 C   0  0  0  0  0  0  0  0  0  0  0  0
   64.1761   17.8409   49.0259 C   0  0  0  0  0  0  0  0  0  0  0  0
   64.6159   16.6531   49.5896 C   0  0  0  0  0  0  0  0  0  0  0  0
   63.7675   15.5466   49.6355 C   0  0  0  0  0  0  0  0  0  0  0  0
   62.0377   16.8218   48.5489 C   0  0  0  0  0  0  0  0  0  0  0  0
   62.4774   15.6389   49.1116 C   0  0  0  0  0  0  0  0  0  0  0  0
   60.3796   16.9220   47.8880 S   0  0  0  0  0  0  0  0  0  0  0  0
   59.3834   15.7032   48.7448 C   0  0  0  0  0  0  0  0  0  0  0  0
   59.3034   15.7388   50.1448 C   0  0  0  0  0  0  0  0  0  0  0  0
   58.5300   14.7822   50.8317 C   0  0  0  0  0  0  0  0  0  0  0  0
   58.7029   14.7220   48.0317 C   0  0  0  0  0  0  0  0  0  0  0  0
   57.9095   13.7463   48.7335 C   0  0  0  0  0  0  0  0  0  0  0  0
   57.1401   12.6790   48.3013 N   0  0  0  0  0  0  0  0  0  0  0  0
   56.5865   12.0554   49.3962 N   0  0  0  0  0  0  0  0  0  0  0  0
   56.9822   12.6994   50.5103 C   0  0  0  0  0  0  0  0  0  0  0  0
   57.8296   13.7820   50.1035 C   0  0  0  0  0  0  0  0  0  0  0  0
   56.6035   12.3419   51.9213 C   0  0  0  0  0  0  0  0  0  0  0  0
   57.3073   12.8500   52.9803 C   0  0  0  0  0  0  0  0  0  0  0  0
   57.0618   12.2976   54.3572 C   0  0  0  0  0  0  0  0  0  0  0  0
   57.6855   12.8427   55.4113 N   0  0  0  0  0  0  0  0  0  0  0  0
   57.4959   12.3803   56.6592 C   0  0  0  0  0  0  0  0  0  0  0  0
   56.6365   11.3148   56.8660 C   0  0  0  0  0  0  0  0  0  0  0  0
   55.9788   10.7336   55.7930 C   0  0  0  0  0  0  0  0  0  0  0  0
   56.1934   11.2310   54.5161 C   0  0  0  0  0  0  0  0  0  0  0  0
   62.8336   20.4050   49.6048 H   0  0  0  0  0  0  0  0  0  0  0  0
   62.1567   22.4804   48.8040 H   0  0  0  0  0  0  0  0  0  0  0  0
   62.6442   21.8834   47.1816 H   0  0  0  0  0  0  0  0  0  0  0  0
   60.9822   21.5760   47.7896 H   0  0  0  0  0  0  0  0  0  0  0  0
   64.8342   18.6966   48.9909 H   0  0  0  0  0  0  0  0  0  0  0  0
   65.6152   16.5843   49.9933 H   0  0  0  0  0  0  0  0  0  0  0  0
   64.1083   14.6209   50.0752 H   0  0  0  0  0  0  0  0  0  0  0  0
   61.8202   14.7826   49.1461 H   0  0  0  0  0  0  0  0  0  0  0  0
   59.8351   16.5000   50.6965 H   0  0  0  0  0  0  0  0  0  0  0  0
   58.4694   14.8087   51.9096 H   0  0  0  0  0  0  0  0  0  0  0  0
   58.7693   14.6918   46.9541 H   0  0  0  0  0  0  0  0  0  0  0  0
   57.0081   12.4057   47.3484 H   0  0  0  0  0  0  0  0  0  0  0  0
   55.7699   11.6791   52.1006 H   0  0  0  0  0  0  0  0  0  0  0  0
   58.0300   13.6381   52.8286 H   0  0  0  0  0  0  0  0  0  0  0  0
   58.0093   12.8360   57.4930 H   0  0  0  0  0  0  0  0  0  0  0  0
   56.4783   10.9357   57.8649 H   0  0  0  0  0  0  0  0  0  0  0  0
   55.3067    9.9028   55.9495 H   0  0  0  0  0  0  0  0  0  0  0  0
   55.6935   10.7954   53.6635 H   0  0  0  0  0  0  0  0  0  0  0  0
  1  2  2  0  0  0  0
  2  3  1  0  0  0  0
  2  5  1  0  0  0  0
  3  4  1  0  0  0  0
  3 29  1  0  0  0  0
  4 30  1  0  0  0  0
  4 31  1  0  0  0  0
  4 32  1  0  0  0  0
  5  6  2  0  0  0  0
  5  9  1  0  0  0  0
  6  7  1  0  0  0  0
  6 33  1  0  0  0  0
  7  8  2  0  0  0  0
  7 34  1  0  0  0  0
  8 10  1  0  0  0  0
  8 35  1  0  0  0  0
  9 10  2  0  0  0  0
  9 11  1  0  0  0  0
 10 36  1  0  0  0  0
 11 12  1  0  0  0  0
 12 13  2  0  0  0  0
 12 15  1  0  0  0  0
 13 14  1  0  0  0  0
 13 37  1  0  0  0  0
 14 20  2  0  0  0  0
 14 38  1  0  0  0  0
 15 16  2  0  0  0  0
 15 39  1  0  0  0  0
 16 17  1  0  0  0  0
 16 20  1  0  0  0  0
 17 18  1  0  0  0  0
 17 40  1  0  0  0  0
 18 19  2  0  0  0  0
 19 20  1  0  0  0  0
 19 21  1  0  0  0  0
 21 22  2  0  0  0  0
 21 41  1  0  0  0  0
 22 23  1  0  0  0  0
 22 42  1  0  0  0  0
 23 24  2  0  0  0  0
 23 28  1  0  0  0  0
 24 25  1  0  0  0  0
 25 26  2  0  0  0  0
 25 43  1  0  0  0  0
 26 27  1  0  0  0  0
 26 44  1  0  0  0  0
 27 28  2  0  0  0  0
 27 45  1  0  0  0  0
 28 46  1  0  0  0  0
M  END
> <bio:pdb:part:site>
1

> <bio:pdb:part:order>
1

> <bio:pdb:ligand>
true

$$$$
