_1
  -OEChem-09302020483D

 68 72  0     0  0  0  0  0  0999 V2000
   -1.3612    7.6607   34.5152 C   0  0  0  0  0  0  0  0  0  0  0  0
   -2.1154    8.0471   35.3669 C   0  0  0  0  0  0  0  0  0  0  0  0
    1.3140    6.2777   31.5578 C   0  0  0  0  0  0  0  0  0  0  0  0
    0.2347    7.0812   31.1904 C   0  0  0  0  0  0  0  0  0  0  0  0
    7.1644    3.9664   31.6362 C   0  0  0  0  0  0  0  0  0  0  0  0
    5.9616    4.6678   31.5543 C   0  0  0  0  0  0  0  0  0  0  0  0
    0.6164    6.3968   33.8678 C   0  0  0  0  0  0  0  0  0  0  0  0
    5.1706    3.5434   33.5410 C   0  0  0  0  0  0  0  0  0  0  0  0
   -3.0974    9.7848   36.8622 C   0  0  0  0  0  0  0  0  0  0  0  0
   -0.4629    7.2004   33.5005 C   0  0  0  0  0  0  0  0  0  0  0  0
   -3.0135    8.5071   36.3807 C   0  0  0  0  0  0  0  0  0  0  0  0
    1.5048    5.9354   32.8965 C   0  0  0  0  0  0  0  0  0  0  0  0
   -0.6538    7.5426   32.1618 C   0  0  0  0  0  0  0  0  0  0  0  0
    7.3704    3.0535   32.6706 C   0  0  0  0  0  0  0  0  0  0  0  0
    6.3735    2.8420   33.6230 C   0  0  0  0  0  0  0  0  0  0  0  0
    4.9646    4.4563   32.5067 C   0  0  0  0  0  0  0  0  0  0  0  0
   -4.5986    8.5585   37.9338 C   0  0  0  0  0  0  0  0  0  0  0  0
   -5.6665    8.0584   38.8134 C   0  0  0  0  0  0  0  0  0  0  0  0
   -5.9566    6.7626   38.6898 C   0  0  0  0  0  0  0  0  0  0  0  0
   -5.1609    6.0105   37.6826 C   0  0  0  0  0  0  0  0  0  0  0  0
    2.6448    5.0864   33.2827 C   0  0  0  0  0  0  0  0  0  0  0  0
   11.0541    2.5406   32.4504 C   0  0  0  0  0  0  0  0  0  0  0  0
    9.9259    3.7267   34.2301 C   0  0  0  0  0  0  0  0  0  0  0  0
   12.2475    3.4869   32.5285 C   0  0  0  0  0  0  0  0  0  0  0  0
   11.0865    4.7074   34.3600 C   0  0  0  0  0  0  0  0  0  0  0  0
   -1.7987    8.4025   31.7314 C   0  0  0  0  0  0  0  0  0  0  0  0
   13.5603    4.9137   34.1002 C   0  0  0  0  0  0  0  0  0  0  0  0
    8.6730    2.3099   32.7374 C   0  0  0  0  0  0  0  0  0  0  0  0
    6.5725    1.8712   34.7403 C   0  0  0  0  0  0  0  0  0  0  0  0
   -4.2129    6.4050   36.8864 N   0  0  0  0  0  0  0  0  0  0  0  0
   -3.9540    7.7700   37.0620 N   0  0  0  0  0  0  0  0  0  0  0  0
   -4.0845    9.7881   37.8205 N   0  3  0  0  0  0  0  0  0  0  0  0
    9.8148    3.2158   32.8575 N   0  0  0  0  0  0  0  0  0  0  0  0
    3.7621    5.1591   32.4262 N   0  0  0  0  0  0  0  0  0  0  0  0
   12.3613    4.0242   33.9328 N   0  3  0  0  0  0  0  0  0  0  0  0
    2.5824    4.3527   34.2669 O   0  0  0  0  0  0  0  0  0  0  0  0
    5.5032    1.7845   35.5845 F   0  0  0  0  0  0  0  0  0  0  0  0
    6.7991    0.5932   34.3175 F   0  0  0  0  0  0  0  0  0  0  0  0
    7.6384    2.1924   35.5286 F   0  0  0  0  0  0  0  0  0  0  0  0
    1.9991    5.9231   30.7918 H   0  0  0  0  0  0  0  0  0  0  0  0
    0.0953    7.3419   30.1445 H   0  0  0  0  0  0  0  0  0  0  0  0
    7.9348    4.1374   30.8887 H   0  0  0  0  0  0  0  0  0  0  0  0
    5.8122    5.3757   30.7432 H   0  0  0  0  0  0  0  0  0  0  0  0
    0.7703    6.1260   34.9109 H   0  0  0  0  0  0  0  0  0  0  0  0
    4.3936    3.3778   34.2843 H   0  0  0  0  0  0  0  0  0  0  0  0
   -2.5983   10.7142   36.6692 H   0  0  0  0  0  0  0  0  0  0  0  0
   -6.1716    8.7148   39.5090 H   0  0  0  0  0  0  0  0  0  0  0  0
   -6.7159    6.2559   39.2684 H   0  0  0  0  0  0  0  0  0  0  0  0
   -5.4387    4.9446   37.6182 H   0  0  0  0  0  0  0  0  0  0  0  0
   10.9627    2.1972   31.4127 H   0  0  0  0  0  0  0  0  0  0  0  0
   11.2424    1.6530   33.0691 H   0  0  0  0  0  0  0  0  0  0  0  0
   10.0508    2.9043   34.9472 H   0  0  0  0  0  0  0  0  0  0  0  0
    9.0039    4.2549   34.5017 H   0  0  0  0  0  0  0  0  0  0  0  0
   13.1784    2.9556   32.3045 H   0  0  0  0  0  0  0  0  0  0  0  0
   12.1398    4.3410   31.8498 H   0  0  0  0  0  0  0  0  0  0  0  0
   10.9505    5.5912   33.7258 H   0  0  0  0  0  0  0  0  0  0  0  0
   11.2152    5.0193   35.4016 H   0  0  0  0  0  0  0  0  0  0  0  0
   -2.6684    7.7814   31.4903 H   0  0  0  0  0  0  0  0  0  0  0  0
   -2.0801    9.1092   32.5210 H   0  0  0  0  0  0  0  0  0  0  0  0
   -1.5358    8.9966   30.8481 H   0  0  0  0  0  0  0  0  0  0  0  0
   13.4304    5.7763   33.4441 H   0  0  0  0  0  0  0  0  0  0  0  0
   13.6058    5.2199   35.1470 H   0  0  0  0  0  0  0  0  0  0  0  0
   14.4449    4.3380   33.8208 H   0  0  0  0  0  0  0  0  0  0  0  0
    8.6874    1.6331   33.5987 H   0  0  0  0  0  0  0  0  0  0  0  0
    8.8232    1.6989   31.8412 H   0  0  0  0  0  0  0  0  0  0  0  0
   -4.3778   10.5991   38.3582 H   0  0  0  0  0  0  0  0  0  0  0  0
    3.6802    5.8147   31.6406 H   0  0  0  0  0  0  0  0  0  0  0  0
   12.5036    3.2192   34.5584 H   0  0  0  0  0  0  0  0  0  0  0  0
  1  2  3  0  0  0  0
  1 10  1  0  0  0  0
  2 11  1  0  0  0  0
  3  4  2  0  0  0  0
  3 12  1  0  0  0  0
  4 13  1  0  0  0  0
  5  6  2  0  0  0  0
  5 14  1  0  0  0  0
  6 16  1  0  0  0  0
  7 10  1  0  0  0  0
  7 12  2  0  0  0  0
  8 15  1  0  0  0  0
  8 16  2  0  0  0  0
  9 11  2  0  0  0  0
  9 32  1  0  0  0  0
 10 13  2  0  0  0  0
 11 31  1  0  0  0  0
 12 21  1  0  0  0  0
 13 26  1  0  0  0  0
 14 15  2  0  0  0  0
 14 28  1  0  0  0  0
 15 29  1  0  0  0  0
 16 34  1  0  0  0  0
 17 18  1  0  0  0  0
 17 31  1  0  0  0  0
 17 32  2  0  0  0  0
 18 19  2  0  0  0  0
 19 20  1  0  0  0  0
 20 30  2  0  0  0  0
 21 34  1  0  0  0  0
 21 36  2  0  0  0  0
 22 24  1  0  0  0  0
 22 33  1  0  0  0  0
 23 25  1  0  0  0  0
 23 33  1  0  0  0  0
 24 35  1  0  0  0  0
 25 35  1  0  0  0  0
 27 35  1  0  0  0  0
 28 33  1  0  0  0  0
 29 37  1  0  0  0  0
 29 38  1  0  0  0  0
 29 39  1  0  0  0  0
 30 31  1  0  0  0  0
  3 40  1  0  0  0  0
  4 41  1  0  0  0  0
  5 42  1  0  0  0  0
  6 43  1  0  0  0  0
  7 44  1  0  0  0  0
  8 45  1  0  0  0  0
  9 46  1  0  0  0  0
 18 47  1  0  0  0  0
 19 48  1  0  0  0  0
 20 49  1  0  0  0  0
 22 50  1  0  0  0  0
 22 51  1  0  0  0  0
 23 52  1  0  0  0  0
 23 53  1  0  0  0  0
 24 54  1  0  0  0  0
 24 55  1  0  0  0  0
 25 56  1  0  0  0  0
 25 57  1  0  0  0  0
 26 58  1  0  0  0  0
 26 59  1  0  0  0  0
 26 60  1  0  0  0  0
 27 61  1  0  0  0  0
 27 62  1  0  0  0  0
 27 63  1  0  0  0  0
 28 64  1  0  0  0  0
 28 65  1  0  0  0  0
 32 66  1  0  0  0  0
 34 67  1  0  0  0  0
 35 68  1  0  0  0  0
M  CHG  2  32   1  35   1
M  END
> <Chemgauss4>
-17.165339

$$$$
